data/open_dss/uhs17_1247/uhs17_1247--udt6592/Loads_scenario_60.dss
New Load.load_p1ulv1639 conn=wye bus1=p1ulv1639.1.2 kV=0.2080002494301389 Vminpu=0.8 Vmaxpu=1.2 model=1 kW=12.1601 kvar=0.951129136852173 Phases=2

New Load.load_p1ulv1640 conn=wye bus1=p1ulv1640.1.2 kV=0.2080002494301389 Vminpu=0.8 Vmaxpu=1.2 model=1 kW=4.65005 kvar=0.9393556410179604 Phases=2

New Load.load_p1ulv1641 conn=wye bus1=p1ulv1641.1.2 kV=0.2080002494301389 Vminpu=0.8 Vmaxpu=1.2 model=1 kW=11.58 kvar=0.8306198770333432 Phases=2

New Load.load_p1ulv1642 conn=wye bus1=p1ulv1642.1.2 kV=0.2080002494301389 Vminpu=0.8 Vmaxpu=1.2 model=1 kW=4.34004 kvar=0.8790092456155372 Phases=2

New Load.load_p1ulv1643 conn=wye bus1=p1ulv1643.1.2 kV=0.2080002494301389 Vminpu=0.8 Vmaxpu=1.2 model=1 kW=11.61 kvar=0.8410090147543001 Phases=2

New Load.load_p1ulv1644 conn=wye bus1=p1ulv1644.1.2 kV=0.2080002494301389 Vminpu=0.8 Vmaxpu=1.2 model=1 kW=12.3101 kvar=0.9792362671748885 Phases=2

New Load.load_p1ulv1645 conn=wye bus1=p1ulv1645.1.2 kV=0.2080002494301389 Vminpu=0.8 Vmaxpu=1.2 model=1 kW=11.43 kvar=0.8000826809384517 Phases=2

New Load.load_p1ulv1646 conn=wye bus1=p1ulv1646.1.2 kV=0.2080002494301389 Vminpu=0.8 Vmaxpu=1.2 model=1 kW=15.2401 kvar=1.5716902780000437 Phases=2

New Load.load_p1ulv1647 conn=wye bus1=p1ulv1647.1.2 kV=0.2080002494301389 Vminpu=0.8 Vmaxpu=1.2 model=1 kW=3.14003 kvar=0.6392514123589496 Phases=2

New Load.load_p1ulv1648 conn=wye bus1=p1ulv1648.1.2 kV=0.2080002494301389 Vminpu=0.8 Vmaxpu=1.2 model=1 kW=3.51004 kvar=0.7109053401536299 Phases=2

New Load.load_p1ulv1649 conn=wye bus1=p1ulv1649.1.2 kV=0.2080002494301389 Vminpu=0.8 Vmaxpu=1.2 model=1 kW=11.21 kvar=0.7494644148777485 Phases=2

New Load.load_p1ulv1650 conn=wye bus1=p1ulv1650.1.2 kV=0.2080002494301389 Vminpu=0.8 Vmaxpu=1.2 model=1 kW=11.79 kvar=0.8711297764663039 Phases=2

New Load.load_p1ulv1651 conn=wye bus1=p1ulv1651.1.2 kV=0.2080002494301389 Vminpu=0.8 Vmaxpu=1.2 model=1 kW=11.71 kvar=0.850469311708746 Phases=2

New Load.load_p1ulv1652 conn=wye bus1=p1ulv1652.1.2 kV=0.2080002494301389 Vminpu=0.8 Vmaxpu=1.2 model=1 kW=10.81 kvar=0.6703963496338274 Phases=2

New Load.load_p1ulv1653 conn=wye bus1=p1ulv1653.1.2 kV=0.2080002494301389 Vminpu=0.8 Vmaxpu=1.2 model=1 kW=12.46 kvar=1.0097734632697801 Phases=2

New Load.load_p1ulv1654 conn=wye bus1=p1ulv1654.1.2 kV=0.2080002494301389 Vminpu=0.8 Vmaxpu=1.2 model=1 kW=3.51004 kvar=0.7109053401536299 Phases=2

New Load.load_p1ulv1655 conn=wye bus1=p1ulv1655.1.2 kV=0.2080002494301389 Vminpu=0.8 Vmaxpu=1.2 model=1 kW=10.75 kvar=0.659946738820333 Phases=2

New Load.load_p1ulv1656 conn=wye bus1=p1ulv1656.1.2 kV=0.2080002494301389 Vminpu=0.8 Vmaxpu=1.2 model=1 kW=14.2801 kvar=1.3802955141806108 Phases=2

New Load.load_p1ulv1657 conn=wye bus1=p1ulv1657.1.2 kV=0.2080002494301389 Vminpu=0.8 Vmaxpu=1.2 model=1 kW=11.18 kvar=0.7491873541136322 Phases=2

New Load.load_p1ulv1658 conn=wye bus1=p1ulv1658.1.2 kV=0.2080002494301389 Vminpu=0.8 Vmaxpu=1.2 model=1 kW=12 kvar=0.9090541719686612 Phases=2

New Load.load_p1ulv1660 conn=wye bus1=p1ulv1660.1.2 kV=0.2080002494301389 Vminpu=0.8 Vmaxpu=1.2 model=1 kW=10.7 kvar=0.6497938057886328 Phases=2

New Load.load_p1ulv1661 conn=wye bus1=p1ulv1661.1.2 kV=0.2080002494301389 Vminpu=0.8 Vmaxpu=1.2 model=1 kW=15.5001 kvar=1.6286667448988021 Phases=2

New Load.load_p1ulv1663 conn=wye bus1=p1ulv1663.1.2 kV=0.2080002494301389 Vminpu=0.8 Vmaxpu=1.2 model=1 kW=11.59 kvar=0.8305180443395029 Phases=2

New Load.load_p1ulv1664 conn=wye bus1=p1ulv1664.1.2 kV=0.2080002494301389 Vminpu=0.8 Vmaxpu=1.2 model=1 kW=12.17 kvar=0.9507348841529898 Phases=2

New Load.load_p1ulv1665 conn=wye bus1=p1ulv1665.1.2 kV=0.2080002494301389 Vminpu=0.8 Vmaxpu=1.2 model=1 kW=11.45 kvar=0.8000206635310265 Phases=2

New Load.load_p1ulv1666 conn=wye bus1=p1ulv1666.1.2 kV=0.2080002494301389 Vminpu=0.8 Vmaxpu=1.2 model=1 kW=11.84 kvar=0.8790092456155372 Phases=2

New Load.load_p1ulv1667 conn=wye bus1=p1ulv1667.1.2 kV=0.2080002494301389 Vminpu=0.8 Vmaxpu=1.2 model=1 kW=11.41 kvar=0.7898663736101474 Phases=2

New Load.load_p1ulv1668 conn=wye bus1=p1ulv1668.1.2 kV=0.2080002494301389 Vminpu=0.8 Vmaxpu=1.2 model=1 kW=11.76 kvar=0.8605698013918458 Phases=2

New Load.load_p1ulv1669 conn=wye bus1=p1ulv1669.1.2 kV=0.2080002494301389 Vminpu=0.8 Vmaxpu=1.2 model=1 kW=11.82 kvar=0.8794793907851697 Phases=2

New Load.load_p1ulv1670 conn=wye bus1=p1ulv1670.1.2 kV=0.2080002494301389 Vminpu=0.8 Vmaxpu=1.2 model=1 kW=13.7101 kvar=1.2610064660568046 Phases=2

New Load.load_p1ulv1671 conn=wye bus1=p1ulv1671.1.2 kV=0.2080002494301389 Vminpu=0.8 Vmaxpu=1.2 model=1 kW=11.7 kvar=0.8506543699954566 Phases=2

New Load.load_p1ulv1672 conn=wye bus1=p1ulv1672.1.2 kV=0.2080002494301389 Vminpu=0.8 Vmaxpu=1.2 model=1 kW=11.46 kvar=0.810315553811549 Phases=2

New Load.load_p1ulv1673 conn=wye bus1=p1ulv1673.1.2 kV=0.2080002494301389 Vminpu=0.8 Vmaxpu=1.2 model=1 kW=12.17 kvar=0.9507348841529898 Phases=2

New Load.load_p1ulv1674 conn=wye bus1=p1ulv1674.1.2 kV=0.2080002494301389 Vminpu=0.8 Vmaxpu=1.2 model=1 kW=10.63 kvar=0.6404763570309296 Phases=2

New Load.load_p1ulv1675 conn=wye bus1=p1ulv1675.1.2 kV=0.2080002494301389 Vminpu=0.8 Vmaxpu=1.2 model=1 kW=2.83003 kvar=0.5702045040817287 Phases=2

New Load.load_p1ulv1676 conn=wye bus1=p1ulv1676.1.2 kV=0.2080002494301389 Vminpu=0.8 Vmaxpu=1.2 model=1 kW=11.16 kvar=0.7393639251946486 Phases=2

New Load.load_p1ulv1677 conn=wye bus1=p1ulv1677.1.2 kV=0.2080002494301389 Vminpu=0.8 Vmaxpu=1.2 model=1 kW=11.78 kvar=0.8690991898599637 Phases=2

New Load.load_p1ulv1678 conn=wye bus1=p1ulv1678.1.2 kV=0.2080002494301389 Vminpu=0.8 Vmaxpu=1.2 model=1 kW=10.68 kvar=0.6507075106785133 Phases=2

New Load.load_p1ulv1679 conn=wye bus1=p1ulv1679.1.2 kV=0.2080002494301389 Vminpu=0.8 Vmaxpu=1.2 model=1 kW=11.64 kvar=0.8406709773712032 Phases=2

New Load.load_p1ulv1680 conn=wye bus1=p1ulv1680.1.2 kV=0.2080002494301389 Vminpu=0.8 Vmaxpu=1.2 model=1 kW=12 kvar=0.9090541719686612 Phases=2

New Load.load_p1ulv1681 conn=wye bus1=p1ulv1681.1.2 kV=0.2080002494301389 Vminpu=0.8 Vmaxpu=1.2 model=1 kW=4.97005 kvar=1.009211696284033 Phases=2

New Load.load_p1ulv1682 conn=wye bus1=p1ulv1682.1.2 kV=0.2080002494301389 Vminpu=0.8 Vmaxpu=1.2 model=1 kW=12.1601 kvar=0.951129136852173 Phases=2

New Load.load_p1ulv1683 conn=wye bus1=p1ulv1683.1.2 kV=0.2080002494301389 Vminpu=0.8 Vmaxpu=1.2 model=1 kW=10.48 kvar=0.6004270372747549 Phases=2

New Load.load_p1ulv1684 conn=wye bus1=p1ulv1684.1.2 kV=0.2080002494301389 Vminpu=0.8 Vmaxpu=1.2 model=1 kW=11.34 kvar=0.7797533791810017 Phases=2

New Load.load_p1ulv1685 conn=wye bus1=p1ulv1685.1.2 kV=0.2080002494301389 Vminpu=0.8 Vmaxpu=1.2 model=1 kW=12 kvar=0.9090541719686612 Phases=2

New Load.load_p1ulv1686 conn=wye bus1=p1ulv1686.1.2 kV=0.2080002494301389 Vminpu=0.8 Vmaxpu=1.2 model=1 kW=11.66 kvar=0.8490757083015232 Phases=2

New Load.load_p1ulv1687 conn=wye bus1=p1ulv1687.1.2 kV=0.2080002494301389 Vminpu=0.8 Vmaxpu=1.2 model=1 kW=11.09 kvar=0.7308650364566972 Phases=2

New Load.load_p1ulv1688 conn=wye bus1=p1ulv1688.1.2 kV=0.2080002494301389 Vminpu=0.8 Vmaxpu=1.2 model=1 kW=11.81 kvar=0.8706702910749454 Phases=2

New Load.load_p1ulv1689 conn=wye bus1=p1ulv1689.1.2 kV=0.2080002494301389 Vminpu=0.8 Vmaxpu=1.2 model=1 kW=12.2401 kvar=0.9600252013068835 Phases=2

New Load.load_p1ulv1690 conn=wye bus1=p1ulv1690.1.2 kV=0.2080002494301389 Vminpu=0.8 Vmaxpu=1.2 model=1 kW=11.47 kvar=0.8102961810428216 Phases=2

New Load.load_p1ulv1691 conn=wye bus1=p1ulv1691.1.2 kV=0.2080002494301389 Vminpu=0.8 Vmaxpu=1.2 model=1 kW=10.32 kvar=0.5696736784206362 Phases=2

New Load.load_p1ulv1692 conn=wye bus1=p1ulv1692.1.2 kV=0.2080002494301389 Vminpu=0.8 Vmaxpu=1.2 model=1 kW=15.3201 kvar=1.5920221095849323 Phases=2

New Load.load_p1ulv1693 conn=wye bus1=p1ulv1693.1.2 kV=0.2080002494301389 Vminpu=0.8 Vmaxpu=1.2 model=1 kW=11.97 kvar=0.9100165868800613 Phases=2

New Load.load_p1ulv1694 conn=wye bus1=p1ulv1694.1.2 kV=0.2080002494301389 Vminpu=0.8 Vmaxpu=1.2 model=1 kW=11.08 kvar=0.7306960987749602 Phases=2

New Load.load_p1ulv1695 conn=wye bus1=p1ulv1695.1.2 kV=0.2080002494301389 Vminpu=0.8 Vmaxpu=1.2 model=1 kW=5.67006 kvar=1.1513547893144422 Phases=2

New Load.load_p1ulv1696 conn=wye bus1=p1ulv1696.1.2 kV=0.2080002494301389 Vminpu=0.8 Vmaxpu=1.2 model=1 kW=3.44003 kvar=0.7003258045487328 Phases=2

New Load.load_p1ulv1697 conn=wye bus1=p1ulv1697.1.2 kV=0.2080002494301389 Vminpu=0.8 Vmaxpu=1.2 model=1 kW=12.0601 kvar=0.9211747595883809 Phases=2

New Load.load_p1ulv1698 conn=wye bus1=p1ulv1698.1.2 kV=0.2080002494301389 Vminpu=0.8 Vmaxpu=1.2 model=1 kW=12.53 kvar=1.0187603008056223 Phases=2

New Load.load_p1ulv1699 conn=wye bus1=p1ulv1699.1.2 kV=0.2080002494301389 Vminpu=0.8 Vmaxpu=1.2 model=1 kW=11.72 kvar=0.8591212600552419 Phases=2

New Load.load_p1ulv1700 conn=wye bus1=p1ulv1700.1.2 kV=0.2080002494301389 Vminpu=0.8 Vmaxpu=1.2 model=1 kW=5.10005 kvar=1.0409343578723245 Phases=2

New Load.load_p1ulv1701 conn=wye bus1=p1ulv1701.1.2 kV=0.2080002494301389 Vminpu=0.8 Vmaxpu=1.2 model=1 kW=12.01 kvar=0.9205137205953031 Phases=2

New Load.load_p1ulv1702 conn=wye bus1=p1ulv1702.1.2 kV=0.2080002494301389 Vminpu=0.8 Vmaxpu=1.2 model=1 kW=11.29 kvar=0.7696004461493017 Phases=2

New Load.load_p1ulv1703 conn=wye bus1=p1ulv1703.1.2 kV=0.2080002494301389 Vminpu=0.8 Vmaxpu=1.2 model=1 kW=10.85 kvar=0.6802526048837334 Phases=2

New Load.load_p1ulv1704 conn=wye bus1=p1ulv1704.1.2 kV=0.2080002494301389 Vminpu=0.8 Vmaxpu=1.2 model=1 kW=12.5401 kvar=1.0207856490641993 Phases=2

New Load.load_p1ulv1705 conn=wye bus1=p1ulv1705.1.2 kV=0.2080002494301389 Vminpu=0.8 Vmaxpu=1.2 model=1 kW=11.44 kvar=0.8000592452444024 Phases=2

New Load.load_p1ulv1706 conn=wye bus1=p1ulv1706.1.2 kV=0.2080002494301389 Vminpu=0.8 Vmaxpu=1.2 model=1 kW=11.22 kvar=0.7495268825292292 Phases=2

New Load.load_p1ulv1707 conn=wye bus1=p1ulv1707.1.2 kV=0.2080002494301389 Vminpu=0.8 Vmaxpu=1.2 model=1 kW=6.54007 kvar=1.3314360004287842 Phases=2

New Load.load_p1ulv1708 conn=wye bus1=p1ulv1708.1.2 kV=0.2080002494301389 Vminpu=0.8 Vmaxpu=1.2 model=1 kW=10.73 kvar=0.6592580864811803 Phases=2

New Load.load_p1ulv1709 conn=wye bus1=p1ulv1709.1.2 kV=0.2080002494301389 Vminpu=0.8 Vmaxpu=1.2 model=1 kW=15.0401 kvar=1.531078545873243 Phases=2

New Load.load_p1ulv1710 conn=wye bus1=p1ulv1710.1.2 kV=0.2080002494301389 Vminpu=0.8 Vmaxpu=1.2 model=1 kW=11.69 kvar=0.8508239104029033 Phases=2

New Load.load_p1ulv1711 conn=wye bus1=p1ulv1711.1.2 kV=0.2080002494301389 Vminpu=0.8 Vmaxpu=1.2 model=1 kW=11.98 kvar=0.9097109219867646 Phases=2

New Load.load_p1ulv1712 conn=wye bus1=p1ulv1712.1.2 kV=0.2080002494301389 Vminpu=0.8 Vmaxpu=1.2 model=1 kW=4.93005 kvar=1.0010893498586726 Phases=2

New Load.load_p1ulv1713 conn=wye bus1=p1ulv1713.1.2 kV=0.2080002494301389 Vminpu=0.8 Vmaxpu=1.2 model=1 kW=12.43 kvar=1.0010893498586726 Phases=2

New Load.load_p1ulv1714 conn=wye bus1=p1ulv1714.1.2 kV=0.2080002494301389 Vminpu=0.8 Vmaxpu=1.2 model=1 kW=10.79 kvar=0.6697886084538411 Phases=2

New Load.load_p1ulv1715 conn=wye bus1=p1ulv1715.1.2 kV=0.2080002494301389 Vminpu=0.8 Vmaxpu=1.2 model=1 kW=12.6601 kvar=1.0504897247296356 Phases=2

New Load.load_p1ulv1716 conn=wye bus1=p1ulv1716.1.2 kV=0.2080002494301389 Vminpu=0.8 Vmaxpu=1.2 model=1 kW=11.64 kvar=0.8406709773712032 Phases=2

New Load.load_p1ulv1717 conn=wye bus1=p1ulv1717.1.2 kV=0.2080002494301389 Vminpu=0.8 Vmaxpu=1.2 model=1 kW=3.21003 kvar=0.6501428670480555 Phases=2

New Load.load_p1ulv1810 conn=wye bus1=p1ulv1810.1.2 kV=0.2080002494301389 Vminpu=0.8 Vmaxpu=1.2 model=1 kW=10.62 kvar=0.6302766165192346 Phases=2

New Load.load_p1ulv1811 conn=wye bus1=p1ulv1811.1.2 kV=0.2080002494301389 Vminpu=0.8 Vmaxpu=1.2 model=1 kW=3.43003 kvar=0.70007864149034 Phases=2

New Load.load_p1ulv1813 conn=wye bus1=p1ulv1813.1.2 kV=0.2080002494301389 Vminpu=0.8 Vmaxpu=1.2 model=1 kW=13.0301 kvar=1.1200297390827405 Phases=2

New Load.load_p1ulv1814 conn=wye bus1=p1ulv1814.1.2 kV=0.2080002494301389 Vminpu=0.8 Vmaxpu=1.2 model=1 kW=12.01 kvar=0.9205137205953031 Phases=2

New Load.load_p1ulv1815 conn=wye bus1=p1ulv1815.1.2 kV=0.2080002494301389 Vminpu=0.8 Vmaxpu=1.2 model=1 kW=12.03 kvar=0.9198658856050712 Phases=2

New Load.load_p1ulv1816 conn=wye bus1=p1ulv1816.1.2 kV=0.2080002494301389 Vminpu=0.8 Vmaxpu=1.2 model=1 kW=11.0701 kvar=2.247879679084491 Phases=2

New Load.load_p1ulv1817 conn=wye bus1=p1ulv1817.1.2 kV=0.2080002494301389 Vminpu=0.8 Vmaxpu=1.2 model=1 kW=9.840100000000001 kvar=1.9981175265046658 Phases=2

New Load.load_p1ulv1818 conn=wye bus1=p1ulv1818.1.2 kV=0.2080002494301389 Vminpu=0.8 Vmaxpu=1.2 model=1 kW=14.7001 kvar=1.4582649236133909 Phases=2

New Load.load_p1ulv1819 conn=wye bus1=p1ulv1819.1.2 kV=0.2080002494301389 Vminpu=0.8 Vmaxpu=1.2 model=1 kW=13.6501 kvar=1.2488229464187643 Phases=2

New Load.load_p1ulv1820 conn=wye bus1=p1ulv1820.1.2 kV=0.2080002494301389 Vminpu=0.8 Vmaxpu=1.2 model=1 kW=9.9001 kvar=2.0103010461427058 Phases=2

New Load.load_p1ulv1821 conn=wye bus1=p1ulv1821.1.2 kV=0.2080002494301389 Vminpu=0.8 Vmaxpu=1.2 model=1 kW=13.5401 kvar=2.7494345708504815 Phases=2

New Load.load_p1ulv1822 conn=wye bus1=p1ulv1822.1.2 kV=0.2080002494301389 Vminpu=0.8 Vmaxpu=1.2 model=1 kW=14.930100000000001 kvar=4.912582552809586 Phases=2

New Load.load_p1ulv1823 conn=wye bus1=p1ulv1823.1.2.3 kV=0.48 Vminpu=0.8 Vmaxpu=1.2 model=1 kW=38.190400000000004 kvar=7.754891473076878 Phases=3

New Load.load_p1ulv1824 conn=wye bus1=p1ulv1824.1.2 kV=0.2080002494301389 Vminpu=0.8 Vmaxpu=1.2 model=1 kW=4.14004 kvar=1.3592956687066866 Phases=2

New Load.load_p1ulv1828 conn=wye bus1=p1ulv1828.1.2 kV=0.2080002494301389 Vminpu=0.8 Vmaxpu=1.2 model=1 kW=10.85 kvar=0.6802526048837334 Phases=2

New Load.load_p1ulv1829 conn=wye bus1=p1ulv1829.1.2 kV=0.2080002494301389 Vminpu=0.8 Vmaxpu=1.2 model=1 kW=19.1 kvar=0.8304008874096844 Phases=2

New Load.load_p1ulv3006 conn=wye bus1=p1ulv3006.1.2 kV=0.2080002494301389 Vminpu=0.8 Vmaxpu=1.2 model=1 kW=4.65005 kvar=0.9393556410179604 Phases=2

New Load.load_p1ulv3007 conn=wye bus1=p1ulv3007.1.2 kV=0.2080002494301389 Vminpu=0.8 Vmaxpu=1.2 model=1 kW=11.05 kvar=0.7208663675971405 Phases=2

New Load.load_p1ulv3008 conn=wye bus1=p1ulv3008.1.2 kV=0.2080002494301389 Vminpu=0.8 Vmaxpu=1.2 model=1 kW=13.5401 kvar=1.2296433109660727 Phases=2

New Load.load_p1ulv3009 conn=wye bus1=p1ulv3009.1.2 kV=0.2080002494301389 Vminpu=0.8 Vmaxpu=1.2 model=1 kW=4.41004 kvar=0.900101402062973 Phases=2

New Load.load_p1ulv3010 conn=wye bus1=p1ulv3010.1.2 kV=0.2080002494301389 Vminpu=0.8 Vmaxpu=1.2 model=1 kW=10.88 kvar=0.6898735027380501 Phases=2

New Load.load_p1ulv3011 conn=wye bus1=p1ulv3011.1.2 kV=0.2080002494301389 Vminpu=0.8 Vmaxpu=1.2 model=1 kW=10.99 kvar=0.7105048699136965 Phases=2

New Load.load_p1ulv3012 conn=wye bus1=p1ulv3012.1.2 kV=0.2080002494301389 Vminpu=0.8 Vmaxpu=1.2 model=1 kW=13.3501 kvar=1.19096286257921 Phases=2

New Load.load_p1ulv3016 conn=wye bus1=p1ulv3016.1.2 kV=0.2080002494301389 Vminpu=0.8 Vmaxpu=1.2 model=1 kW=12.5401 kvar=1.0207856490641993 Phases=2

New Load.load_p1ulv3017 conn=wye bus1=p1ulv3017.1.2 kV=0.2080002494301389 Vminpu=0.8 Vmaxpu=1.2 model=1 kW=11.62 kvar=0.8409115972996914 Phases=2

New Load.load_p1ulv3019 conn=wye bus1=p1ulv3019.1.2 kV=0.2080002494301389 Vminpu=0.8 Vmaxpu=1.2 model=1 kW=10.58 kvar=0.6205753927367721 Phases=2

New Load.load_p1ulv3021 conn=wye bus1=p1ulv3021.1.2 kV=0.2080002494301389 Vminpu=0.8 Vmaxpu=1.2 model=1 kW=3.60004 kvar=0.7291334744808246 Phases=2

New Load.load_p1ulv3023 conn=wye bus1=p1ulv3023.1.2 kV=0.2080002494301389 Vminpu=0.8 Vmaxpu=1.2 model=1 kW=12.6101 kvar=1.0403106593646716 Phases=2

New Load.load_p1ulv3024 conn=wye bus1=p1ulv3024.1.2 kV=0.2080002494301389 Vminpu=0.8 Vmaxpu=1.2 model=1 kW=11.41 kvar=0.7898663736101474 Phases=2

New Load.load_p1ulv3034 conn=wye bus1=p1ulv3034.1.2 kV=0.2080002494301389 Vminpu=0.8 Vmaxpu=1.2 model=1 kW=10.67 kvar=0.6403771062023346 Phases=2

New Load.load_p1ulv3037 conn=wye bus1=p1ulv3037.1.2 kV=0.2080002494301389 Vminpu=0.8 Vmaxpu=1.2 model=1 kW=14.5701 kvar=1.4393340932974013 Phases=2

New Load.load_p1ulv3512 conn=wye bus1=p1ulv3512.1.2.3 kV=0.48 Vminpu=0.8 Vmaxpu=1.2 model=1 kW=66.3207 kvar=21.798559934335827 Phases=3

New Load.load_p1ulv3531 conn=wye bus1=p1ulv3531.1.2 kV=0.2080002494301389 Vminpu=0.8 Vmaxpu=1.2 model=1 kW=12.4501 kvar=0.999958579116559 Phases=2

New Load.load_p1ulv3532 conn=wye bus1=p1ulv3532.1.2 kV=0.2080002494301389 Vminpu=0.8 Vmaxpu=1.2 model=1 kW=4.73005 kvar=0.960477617731872 Phases=2

New Load.load_p1ulv3533 conn=wye bus1=p1ulv3533.1.2 kV=0.2080002494301389 Vminpu=0.8 Vmaxpu=1.2 model=1 kW=19.6101 kvar=0.9409239980998833 Phases=2

New Load.load_p1ulv3534 conn=wye bus1=p1ulv3534.1.2.3 kV=0.48 Vminpu=0.8 Vmaxpu=1.2 model=1 kW=30.850299999999997 kvar=6.264420598157223 Phases=3

New Load.load_p1ulv3535 conn=wye bus1=p1ulv3535.1.2.3 kV=0.48 Vminpu=0.8 Vmaxpu=1.2 model=1 kW=24.5502 kvar=4.985130730296933 Phases=3

New Load.load_p1ulv3536 conn=wye bus1=p1ulv3536.1.2 kV=0.2080002494301389 Vminpu=0.8 Vmaxpu=1.2 model=1 kW=11.49 kvar=0.8102121782761024 Phases=2

New Load.load_p1ulv3537 conn=wye bus1=p1ulv3537.1.2.3 kV=0.48 Vminpu=0.8 Vmaxpu=1.2 model=1 kW=23.8102 kvar=4.834867321427768 Phases=3

New Load.load_p1ulv3538 conn=wye bus1=p1ulv3538.1.2.3 kV=0.48 Vminpu=0.8 Vmaxpu=1.2 model=1 kW=28.2503 kvar=5.736468080508812 Phases=3

New Load.load_p1ulv4856 conn=wye bus1=p1ulv4856.1.2.3 kV=0.48 Vminpu=0.8 Vmaxpu=1.2 model=1 kW=50.1505 kvar=10.183493360125633 Phases=3

New Load.load_p1ulv4857 conn=wye bus1=p1ulv4857.1.2 kV=0.2080002494301389 Vminpu=0.8 Vmaxpu=1.2 model=1 kW=12.78 kvar=1.069394007270052 Phases=2

New Load.load_p1ulv4858 conn=wye bus1=p1ulv4858.1.2 kV=0.2080002494301389 Vminpu=0.8 Vmaxpu=1.2 model=1 kW=11.23 kvar=0.7593664194785962 Phases=2

New Load.load_p1ulv4859 conn=wye bus1=p1ulv4859.1.2 kV=0.2080002494301389 Vminpu=0.8 Vmaxpu=1.2 model=1 kW=6.55007 kvar=1.3300484412589724 Phases=2

New Load.load_p1ulv4860 conn=wye bus1=p1ulv4860.1.2 kV=0.2080002494301389 Vminpu=0.8 Vmaxpu=1.2 model=1 kW=5.54006 kvar=1.1191463774750727 Phases=2

New Load.load_p1ulv4861 conn=wye bus1=p1ulv4861.1.2 kV=0.2080002494301389 Vminpu=0.8 Vmaxpu=1.2 model=1 kW=6.19006 kvar=1.2601805070609642 Phases=2

New Load.load_p1ulv4863 conn=wye bus1=p1ulv4863.1.2 kV=0.2080002494301389 Vminpu=0.8 Vmaxpu=1.2 model=1 kW=11.04 kvar=0.7206859710917335 Phases=2

New Load.load_p1ulv4865 conn=wye bus1=p1ulv4865.1.2 kV=0.2080002494301389 Vminpu=0.8 Vmaxpu=1.2 model=1 kW=11.2 kvar=0.7493869570665965 Phases=2

New Load.load_p1ulv4866 conn=wye bus1=p1ulv4866.1.2 kV=0.2080002494301389 Vminpu=0.8 Vmaxpu=1.2 model=1 kW=12.7401 kvar=1.0612926142357433 Phases=2

New Load.load_p1ulv4867 conn=wye bus1=p1ulv4867.1.2 kV=0.2080002494301389 Vminpu=0.8 Vmaxpu=1.2 model=1 kW=11.92 kvar=0.8998375215150975 Phases=2

New Load.load_p1ulv4868 conn=wye bus1=p1ulv4868.1.2 kV=0.2080002494301389 Vminpu=0.8 Vmaxpu=1.2 model=1 kW=11.13 kvar=0.7409012375272501 Phases=2

New Load.load_p1ulv4869 conn=wye bus1=p1ulv4869.1.2 kV=0.2080002494301389 Vminpu=0.8 Vmaxpu=1.2 model=1 kW=11.29 kvar=0.7696004461493017 Phases=2

New Load.load_p1ulv4870 conn=wye bus1=p1ulv4870.1.2 kV=0.2080002494301389 Vminpu=0.8 Vmaxpu=1.2 model=1 kW=3.37003 kvar=0.6807790649347335 Phases=2

New Load.load_p1ulv4871 conn=wye bus1=p1ulv4871.1.2 kV=0.2080002494301389 Vminpu=0.8 Vmaxpu=1.2 model=1 kW=4.01004 kvar=0.810067352976347 Phases=2

New Load.load_p1ulv4872 conn=wye bus1=p1ulv4872.1.2 kV=0.2080002494301389 Vminpu=0.8 Vmaxpu=1.2 model=1 kW=10.59 kvar=0.6306836979747686 Phases=2

New Load.load_p1ulv4873 conn=wye bus1=p1ulv4873.1.2 kV=0.2080002494301389 Vminpu=0.8 Vmaxpu=1.2 model=1 kW=11.1 kvar=0.7291334744808246 Phases=2

New Load.load_p1ulv4874 conn=wye bus1=p1ulv4874.1.2 kV=0.2080002494301389 Vminpu=0.8 Vmaxpu=1.2 model=1 kW=10.65 kvar=0.6396408727569326 Phases=2

New Load.load_p1ulv4875 conn=wye bus1=p1ulv4875.1.2 kV=0.2080002494301389 Vminpu=0.8 Vmaxpu=1.2 model=1 kW=11.65 kvar=0.8405276287025704 Phases=2

New Load.load_p1ulv4876 conn=wye bus1=p1ulv4876.1.2 kV=0.2080002494301389 Vminpu=0.8 Vmaxpu=1.2 model=1 kW=12.1501 kvar=0.9393556410179604 Phases=2

New Load.load_p1ulv4877 conn=wye bus1=p1ulv4877.1.2 kV=0.2080002494301389 Vminpu=0.8 Vmaxpu=1.2 model=1 kW=3.87004 kvar=0.7898859035382418 Phases=2

New Load.load_p1ulv4878 conn=wye bus1=p1ulv4878.1.2 kV=0.2080002494301389 Vminpu=0.8 Vmaxpu=1.2 model=1 kW=3.91004 kvar=0.7898663736101474 Phases=2

New Load.load_p1ulv4880 conn=wye bus1=p1ulv4880.1.2 kV=0.2080002494301389 Vminpu=0.8 Vmaxpu=1.2 model=1 kW=11.8 kvar=0.8709078525812284 Phases=2

New Load.load_p1ulv4881 conn=wye bus1=p1ulv4881.1.2 kV=0.2080002494301389 Vminpu=0.8 Vmaxpu=1.2 model=1 kW=10.52 kvar=0.6100756371530351 Phases=2

New Load.load_p1ulv4883 conn=wye bus1=p1ulv4883.1.2 kV=0.2080002494301389 Vminpu=0.8 Vmaxpu=1.2 model=1 kW=13.1301 kvar=1.1402832216685126 Phases=2

New Load.load_p1ulv5242 conn=wye bus1=p1ulv5242.1.2 kV=0.2080002494301389 Vminpu=0.8 Vmaxpu=1.2 model=1 kW=12.3801 kvar=2.507401397601154 Phases=2

New Load.load_p1ulv5243 conn=wye bus1=p1ulv5243.1.2 kV=0.2080002494301389 Vminpu=0.8 Vmaxpu=1.2 model=1 kW=13.1501 kvar=2.67024169320322 Phases=2

New Load.load_p1ulv5244 conn=wye bus1=p1ulv5244.1.2 kV=0.2080002494301389 Vminpu=0.8 Vmaxpu=1.2 model=1 kW=10.9601 kvar=2.231271486130809 Phases=2

New Load.load_p1ulv5245 conn=wye bus1=p1ulv5244.1.2 kV=0.2080002494301389 Vminpu=0.8 Vmaxpu=1.2 model=1 kW=10.4701 kvar=2.131516645554163 Phases=2

New Load.load_p1ulv5246 conn=wye bus1=p1ulv5246.1.2 kV=0.2080002494301389 Vminpu=0.8 Vmaxpu=1.2 model=1 kW=12.8901 kvar=2.617446441438379 Phases=2

New Load.load_p1ulv5247 conn=wye bus1=p1ulv5247.1.2 kV=0.2080002494301389 Vminpu=0.8 Vmaxpu=1.2 model=1 kW=12.6601 kvar=2.570742949492558 Phases=2

New Load.load_p1ulv5248 conn=wye bus1=p1ulv5248.1.2 kV=0.2080002494301389 Vminpu=0.8 Vmaxpu=1.2 model=1 kW=12.4401 kvar=2.5325718209337387 Phases=2

New Load.load_p1ulv5249 conn=wye bus1=p1ulv5249.1.2 kV=0.2080002494301389 Vminpu=0.8 Vmaxpu=1.2 model=1 kW=12.8101 kvar=2.6012017485876586 Phases=2

New Load.load_p1ulv5250 conn=wye bus1=p1ulv5250.1.2 kV=0.2080002494301389 Vminpu=0.8 Vmaxpu=1.2 model=1 kW=15.060200000000002 kvar=3.058104040880232 Phases=2

New Load.load_p1ulv5251 conn=wye bus1=p1ulv5251.1.2 kV=0.2080002494301389 Vminpu=0.8 Vmaxpu=1.2 model=1 kW=13.920100000000001 kvar=2.826596861891403 Phases=2

New Load.load_p1ulv5252 conn=wye bus1=p1ulv5252.1.2 kV=0.2080002494301389 Vminpu=0.8 Vmaxpu=1.2 model=1 kW=12.3001 kvar=2.4976418316643163 Phases=2

New Load.load_p1ulv5253 conn=wye bus1=p1ulv5253.1.2 kV=0.2080002494301389 Vminpu=0.8 Vmaxpu=1.2 model=1 kW=12.19 kvar=0.9498984600139976 Phases=2

New Load.load_p1ulv5254 conn=wye bus1=p1ulv5254.1.2.3 kV=0.48 Vminpu=0.8 Vmaxpu=1.2 model=1 kW=37.3904 kvar=7.592444544569675 Phases=3

New Load.load_p1ulv6394 conn=wye bus1=p1ulv6394.1.2 kV=0.2080002494301389 Vminpu=0.8 Vmaxpu=1.2 model=1 kW=13.1101 kvar=1.1391712696764018 Phases=2

New Load.load_p1ulv6395 conn=wye bus1=p1ulv6395.1.2 kV=0.2080002494301389 Vminpu=0.8 Vmaxpu=1.2 model=1 kW=20.8901 kvar=1.199106114871181 Phases=2

New Load.load_p1ulv6396 conn=wye bus1=p1ulv6396.1.2 kV=0.2080002494301389 Vminpu=0.8 Vmaxpu=1.2 model=1 kW=15.5301 kvar=1.630577289583905 Phases=2

New Load.load_p1ulv6836 conn=wye bus1=p1ulv6836.1.2 kV=0.2080002494301389 Vminpu=0.8 Vmaxpu=1.2 model=1 kW=3.13003 kvar=0.6404763570309296 Phases=2

New Load.load_p1ulv6837 conn=wye bus1=p1ulv6837.1.2 kV=0.2080002494301389 Vminpu=0.8 Vmaxpu=1.2 model=1 kW=18.12 kvar=0.6302766165192346 Phases=2

New Load.load_p1ulv6838 conn=wye bus1=p1ulv6838.1.2 kV=0.2080002494301389 Vminpu=0.8 Vmaxpu=1.2 model=1 kW=10.32 kvar=0.5696736784206362 Phases=2

New Load.load_p1ulv6839 conn=wye bus1=p1ulv6839.1.2 kV=0.2080002494301389 Vminpu=0.8 Vmaxpu=1.2 model=1 kW=10.14 kvar=0.5402110512846091 Phases=2

New Load.load_p1ulv6840 conn=wye bus1=p1ulv6840.1.2 kV=0.2080002494301389 Vminpu=0.8 Vmaxpu=1.2 model=1 kW=11.26 kvar=0.7595649045608481 Phases=2

New Load.load_p1ulv6841 conn=wye bus1=p1ulv6841.1.2 kV=0.2080002494301389 Vminpu=0.8 Vmaxpu=1.2 model=1 kW=10.45 kvar=0.6005709639720869 Phases=2

New Load.load_p1ulv6842 conn=wye bus1=p1ulv6842.1.2 kV=0.2080002494301389 Vminpu=0.8 Vmaxpu=1.2 model=1 kW=9.8 kvar=0.46944046466083733 Phases=2

New Load.load_p1ulv6843 conn=wye bus1=p1ulv6843.1.2.3 kV=0.48 Vminpu=0.8 Vmaxpu=1.2 model=1 kW=39.2004 kvar=7.9599807203172235 Phases=3

New Load.load_p1ulv6844 conn=wye bus1=p1ulv6844.1.2.3 kV=0.48 Vminpu=0.8 Vmaxpu=1.2 model=1 kW=19.6002 kvar=6.442274198326754 Phases=3

New Load.load_p1ulv6845 conn=wye bus1=p1ulv6845.1.2 kV=0.2080002494301389 Vminpu=0.8 Vmaxpu=1.2 model=1 kW=2.08002 kvar=0.4201844110128231 Phases=2

New Load.load_p1ulv6846 conn=wye bus1=p1ulv6846.1.2 kV=0.2080002494301389 Vminpu=0.8 Vmaxpu=1.2 model=1 kW=2.83003 kvar=0.5702045040817287 Phases=2

New Load.load_p1ulv6847 conn=wye bus1=p1ulv6847.1.2 kV=0.2080002494301389 Vminpu=0.8 Vmaxpu=1.2 model=1 kW=10.89 kvar=0.6901467391837689 Phases=2

New Load.load_p1ulv6848 conn=wye bus1=p1ulv6848.1.2 kV=0.2080002494301389 Vminpu=0.8 Vmaxpu=1.2 model=1 kW=9.84 kvar=0.48003687420401825 Phases=2

New Load.load_p1ulv6849 conn=wye bus1=p1ulv6849.1.2 kV=0.2080002494301389 Vminpu=0.8 Vmaxpu=1.2 model=1 kW=1.95002 kvar=0.40003141231071515 Phases=2

New Load.load_p1ulv6850 conn=wye bus1=p1ulv6850.1.2 kV=0.2080002494301389 Vminpu=0.8 Vmaxpu=1.2 model=1 kW=10.84 kvar=0.679967673818805 Phases=2

New Load.load_p1ulv6851 conn=wye bus1=p1ulv6851.1.2 kV=0.2080002494301389 Vminpu=0.8 Vmaxpu=1.2 model=1 kW=2.81003 kvar=0.570600928141371 Phases=2

New Load.load_p1ulv6852 conn=wye bus1=p1ulv6852.1.2 kV=0.2080002494301389 Vminpu=0.8 Vmaxpu=1.2 model=1 kW=3.31003 kvar=0.6703963496338274 Phases=2

New Load.load_p1ulv6853 conn=wye bus1=p1ulv6853.1.2 kV=0.2080002494301389 Vminpu=0.8 Vmaxpu=1.2 model=1 kW=10.41 kvar=0.5893824192907394 Phases=2

New Load.load_p1ulv6854 conn=wye bus1=p1ulv6854.1.2 kV=0.2080002494301389 Vminpu=0.8 Vmaxpu=1.2 model=1 kW=11.76 kvar=0.8694859858061031 Phases=2

New Load.load_p1ulv6855 conn=wye bus1=p1ulv6855.1.2 kV=0.2080002494301389 Vminpu=0.8 Vmaxpu=1.2 model=1 kW=11.57 kvar=0.8307064585474014 Phases=2

New Load.load_p1ulv6856 conn=wye bus1=p1ulv6856.1.2 kV=0.2080002494301389 Vminpu=0.8 Vmaxpu=1.2 model=1 kW=10.94 kvar=0.7003258045487328 Phases=2

New Load.load_p1ulv6857 conn=wye bus1=p1ulv6857.1.2 kV=0.2080002494301389 Vminpu=0.8 Vmaxpu=1.2 model=1 kW=8.88 kvar=0.28022298226153225 Phases=2

New Load.load_p1ulv6858 conn=wye bus1=p1ulv6858.1.2 kV=0.2080002494301389 Vminpu=0.8 Vmaxpu=1.2 model=1 kW=10.28 kvar=0.5703014980185626 Phases=2

New Load.load_p1ulv6859 conn=wye bus1=p1ulv6859.1.2 kV=0.2080002494301389 Vminpu=0.8 Vmaxpu=1.2 model=1 kW=3.65004 kvar=0.7392602157737106 Phases=2

New Load.load_p1ulv6860 conn=wye bus1=p1ulv6860.1.2 kV=0.2080002494301389 Vminpu=0.8 Vmaxpu=1.2 model=1 kW=11.61 kvar=0.8302683323425464 Phases=2

New Load.load_p1ulv6861 conn=wye bus1=p1ulv6861.1.2 kV=0.2080002494301389 Vminpu=0.8 Vmaxpu=1.2 model=1 kW=11.5 kvar=0.8101474048239126 Phases=2

New Load.load_p1ulv6862 conn=wye bus1=p1ulv6862.1.2 kV=0.2080002494301389 Vminpu=0.8 Vmaxpu=1.2 model=1 kW=10.96 kvar=0.7007765735124853 Phases=2

New Load.load_p1ulv6863 conn=wye bus1=p1ulv6863.1.2 kV=0.2080002494301389 Vminpu=0.8 Vmaxpu=1.2 model=1 kW=11.29 kvar=0.7696004461493017 Phases=2

New Load.load_p1ulv6864 conn=wye bus1=p1ulv6864.1.2.3 kV=0.48 Vminpu=0.8 Vmaxpu=1.2 model=1 kW=50.52049999999999 kvar=10.258625064560212 Phases=3

New Load.load_p1ulv6865 conn=wye bus1=p1ulv6865.1.2 kV=0.2080002494301389 Vminpu=0.8 Vmaxpu=1.2 model=1 kW=11.11 kvar=0.7292634355115489 Phases=2

New Load.load_p1ulv6866 conn=wye bus1=p1ulv6866.1.2 kV=0.2080002494301389 Vminpu=0.8 Vmaxpu=1.2 model=1 kW=10.79 kvar=0.6697886084538411 Phases=2

New Load.load_p1ulv6867 conn=wye bus1=p1ulv6867.1.2 kV=0.2080002494301389 Vminpu=0.8 Vmaxpu=1.2 model=1 kW=11.1 kvar=0.7291334744808246 Phases=2

New Load.load_p1ulv6868 conn=wye bus1=p1ulv6868.1.2.3 kV=0.48 Vminpu=0.8 Vmaxpu=1.2 model=1 kW=48.40050000000001 kvar=9.828140704016127 Phases=3

New Load.load_p1ulv6869 conn=wye bus1=p1ulv6869.1.2.3 kV=0.48 Vminpu=0.8 Vmaxpu=1.2 model=1 kW=29.7503 kvar=6.041056071459818 Phases=3

New Load.load_p1ulv6870 conn=wye bus1=p1ulv6870.1.2 kV=0.2080002494301389 Vminpu=0.8 Vmaxpu=1.2 model=1 kW=3.24003 kvar=0.6596095430888772 Phases=2

New Load.load_p1ulv6871 conn=wye bus1=p1ulv6871.1.2.3 kV=0.48 Vminpu=0.8 Vmaxpu=1.2 model=1 kW=49.7505 kvar=10.102269895872032 Phases=3

New Load.load_p1ulv6872 conn=wye bus1=p1ulv6872.1.2 kV=0.2080002494301389 Vminpu=0.8 Vmaxpu=1.2 model=1 kW=16.7502 kvar=3.401273177351699 Phases=2

New Load.load_p1ulv6874 conn=wye bus1=p1ulv6874.1.2.3 kV=0.48 Vminpu=0.8 Vmaxpu=1.2 model=1 kW=32.3603 kvar=6.571039175714569 Phases=3

New Load.load_p1ulv6875 conn=wye bus1=p1ulv6875.1.2 kV=0.2080002494301389 Vminpu=0.8 Vmaxpu=1.2 model=1 kW=9.8501 kvar=2.0001481131110053 Phases=2

New Load.load_p1ulv6876 conn=wye bus1=p1ulv6876.1.2 kV=0.2080002494301389 Vminpu=0.8 Vmaxpu=1.2 model=1 kW=10.22 kvar=0.5494726990544365 Phases=2

New Load.load_p1ulv6877 conn=wye bus1=p1ulv6877.1.2.3 kV=0.48 Vminpu=0.8 Vmaxpu=1.2 model=1 kW=29.820299999999996 kvar=6.055270177704197 Phases=3

New Load.load_p1ulv6878 conn=wye bus1=p1ulv6878.1.2 kV=0.2080002494301389 Vminpu=0.8 Vmaxpu=1.2 model=1 kW=4.75005 kvar=0.95955662038416 Phases=2

New Load.load_p1ulv6879 conn=wye bus1=p1ulv6879.1.2 kV=0.2080002494301389 Vminpu=0.8 Vmaxpu=1.2 model=1 kW=3.0700300000000005 kvar=0.620176126836135 Phases=2

New Load.load_p1ulv6883 conn=wye bus1=p1ulv6883.1.2 kV=0.2080002494301389 Vminpu=0.8 Vmaxpu=1.2 model=1 kW=12.1101 kvar=0.9409239980998833 Phases=2

New Load.load_p1ulv6885 conn=wye bus1=p1ulv6885.1.2 kV=0.2080002494301389 Vminpu=0.8 Vmaxpu=1.2 model=1 kW=10.53 kvar=0.6200140497357622 Phases=2

New Load.load_p1ulv6887 conn=wye bus1=p1ulv6887.1.2 kV=0.2080002494301389 Vminpu=0.8 Vmaxpu=1.2 model=1 kW=11.73 kvar=0.8589462568282636 Phases=2

New Load.load_p1ulv6888 conn=wye bus1=p1ulv6888.1.2 kV=0.2080002494301389 Vminpu=0.8 Vmaxpu=1.2 model=1 kW=10.01 kvar=0.5096833299511698 Phases=2

New Load.load_p1ulv6890 conn=wye bus1=p1ulv6890.1.2 kV=0.2080002494301389 Vminpu=0.8 Vmaxpu=1.2 model=1 kW=11.76 kvar=0.8694859858061031 Phases=2

New Load.load_p1ulv6891 conn=wye bus1=p1ulv6891.1.2 kV=0.2080002494301389 Vminpu=0.8 Vmaxpu=1.2 model=1 kW=3.9800400000000002 kvar=0.8102617463034154 Phases=2

New Load.load_p1ulv6899 conn=wye bus1=p1ulv6899.1.2 kV=0.2080002494301389 Vminpu=0.8 Vmaxpu=1.2 model=1 kW=3.57004 kvar=0.7193043493362031 Phases=2

New Load.load_p1ulv6900 conn=wye bus1=p1ulv6900.1.2 kV=0.2080002494301389 Vminpu=0.8 Vmaxpu=1.2 model=1 kW=4.40004 kvar=0.8911613351670004 Phases=2

New Load.load_p1ulv6901 conn=wye bus1=p1ulv6901.1.2 kV=0.2080002494301389 Vminpu=0.8 Vmaxpu=1.2 model=1 kW=13.2001 kvar=1.1604256664843182 Phases=2

New Load.load_p1ulv6902 conn=wye bus1=p1ulv6902.1.2 kV=0.2080002494301389 Vminpu=0.8 Vmaxpu=1.2 model=1 kW=9.93 kvar=0.48960906739811333 Phases=2

New Load.load_p1ulv6904 conn=wye bus1=p1ulv6904.1.2 kV=0.2080002494301389 Vminpu=0.8 Vmaxpu=1.2 model=1 kW=3.56004 kvar=0.7191629458284491 Phases=2

New Load.load_p1ulv6938 conn=wye bus1=p1ulv6938.1.2 kV=0.2080002494301389 Vminpu=0.8 Vmaxpu=1.2 model=1 kW=1.92002 kvar=0.38987668959050087 Phases=2

New Load.load_p1ulv6950 conn=wye bus1=p1ulv6950.1.2 kV=0.2080002494301389 Vminpu=0.8 Vmaxpu=1.2 model=1 kW=10.6 kvar=0.6294879397252322 Phases=2

New Load.load_p1ulv6951 conn=wye bus1=p1ulv6951.1.2 kV=0.2080002494301389 Vminpu=0.8 Vmaxpu=1.2 model=1 kW=4.450040000000001 kvar=0.898951662187625 Phases=2

New Load.load_p1ulv6955 conn=wye bus1=p1ulv6955.1.2 kV=0.2080002494301389 Vminpu=0.8 Vmaxpu=1.2 model=1 kW=10.58 kvar=0.6205753927367721 Phases=2

New Load.load_p1ulv6956 conn=wye bus1=p1ulv6956.1.2 kV=0.2080002494301389 Vminpu=0.8 Vmaxpu=1.2 model=1 kW=10.64 kvar=0.6392514123589496 Phases=2

New Load.load_p1ulv6962 conn=wye bus1=p1ulv6962.1.2 kV=0.2080002494301389 Vminpu=0.8 Vmaxpu=1.2 model=1 kW=18.22 kvar=0.6504775958854341 Phases=2

New Load.load_p1ulv6964 conn=wye bus1=p1ulv6964.1.2 kV=0.2080002494301389 Vminpu=0.8 Vmaxpu=1.2 model=1 kW=4.27004 kvar=0.869300325420206 Phases=2

New Load.load_p1ulv6966 conn=wye bus1=p1ulv6966.1.2 kV=0.2080002494301389 Vminpu=0.8 Vmaxpu=1.2 model=1 kW=11.24 kvar=0.7594475131176014 Phases=2

New Load.load_p1ulv6967 conn=wye bus1=p1ulv6967.1.2 kV=0.2080002494301389 Vminpu=0.8 Vmaxpu=1.2 model=1 kW=11 kvar=0.7107134345654403 Phases=2

New Load.load_p1ulv6969 conn=wye bus1=p1ulv6969.1.2 kV=0.2080002494301389 Vminpu=0.8 Vmaxpu=1.2 model=1 kW=17.8 kvar=0.5700337678771953 Phases=2

New Load.load_p1ulv6970 conn=wye bus1=p1ulv6970.1.2 kV=0.2080002494301389 Vminpu=0.8 Vmaxpu=1.2 model=1 kW=13.1101 kvar=1.1391712696764018 Phases=2

New Load.load_p1ulv6971 conn=wye bus1=p1ulv6971.1.2 kV=0.2080002494301389 Vminpu=0.8 Vmaxpu=1.2 model=1 kW=11.39 kvar=0.789906312212702 Phases=2

New Load.load_p1ulv6972 conn=wye bus1=p1ulv6972.1.2 kV=0.2080002494301389 Vminpu=0.8 Vmaxpu=1.2 model=1 kW=11.17 kvar=0.749065348529082 Phases=2

New Load.load_p1ulv6973 conn=wye bus1=p1ulv6973.1.2 kV=0.2080002494301389 Vminpu=0.8 Vmaxpu=1.2 model=1 kW=10.36 kvar=0.5807538611730713 Phases=2

New Load.load_p1ulv6974 conn=wye bus1=p1ulv6974.1.2 kV=0.2080002494301389 Vminpu=0.8 Vmaxpu=1.2 model=1 kW=16.7302 kvar=3.397212004139019 Phases=2

New Load.load_p1ulv6975 conn=wye bus1=p1ulv6975.1.2 kV=0.2080002494301389 Vminpu=0.8 Vmaxpu=1.2 model=1 kW=11.08 kvar=0.7306960987749602 Phases=2

New Load.load_p1ulv6976 conn=wye bus1=p1ulv6976.1.2 kV=0.2080002494301389 Vminpu=0.8 Vmaxpu=1.2 model=1 kW=2.97003 kvar=0.5999751474699353 Phases=2

New Load.load_p1ulv6977 conn=wye bus1=p1ulv6977.1.2 kV=0.2080002494301389 Vminpu=0.8 Vmaxpu=1.2 model=1 kW=3.34003 kvar=0.679967673818805 Phases=2

New Load.load_p1ulv6978 conn=wye bus1=p1ulv6978.1.2 kV=0.2080002494301389 Vminpu=0.8 Vmaxpu=1.2 model=1 kW=9.930100000000001 kvar=2.021582739612553 Phases=2

New Load.load_p1ulv6979 conn=wye bus1=p1ulv6979.1.2 kV=0.2080002494301389 Vminpu=0.8 Vmaxpu=1.2 model=1 kW=10.75 kvar=0.659946738820333 Phases=2

New Load.load_p1ulv6980 conn=wye bus1=p1ulv6980.1.2 kV=0.2080002494301389 Vminpu=0.8 Vmaxpu=1.2 model=1 kW=4.86005 kvar=0.9894153325398525 Phases=2

New Load.load_p1ulv6981 conn=wye bus1=p1ulv6981.1.2.3 kV=0.48 Vminpu=0.8 Vmaxpu=1.2 model=1 kW=56.84060000000001 kvar=11.541976105633184 Phases=3

New Load.load_p1ulv6982 conn=wye bus1=p1ulv6982.1.2.3 kV=0.48 Vminpu=0.8 Vmaxpu=1.2 model=1 kW=59.73060000000001 kvar=12.128815634865457 Phases=3

New Load.load_p1ulv6983 conn=wye bus1=p1ulv6983.1.2 kV=0.2080002494301389 Vminpu=0.8 Vmaxpu=1.2 model=1 kW=7.16007 kvar=1.4501635305790819 Phases=2

New Load.load_p1ulv6984 conn=wye bus1=p1ulv6984.1.2 kV=0.2080002494301389 Vminpu=0.8 Vmaxpu=1.2 model=1 kW=12.25 kvar=0.95955662038416 Phases=2

New Load.load_p1ulv6985 conn=wye bus1=p1ulv6985.1.2 kV=0.2080002494301389 Vminpu=0.8 Vmaxpu=1.2 model=1 kW=4.46004 kvar=0.910306540815263 Phases=2

New Load.load_p1ulv6986 conn=wye bus1=p1ulv6986.1.2 kV=0.2080002494301389 Vminpu=0.8 Vmaxpu=1.2 model=1 kW=3.08003 kvar=0.6302452033833459 Phases=2

New Load.load_p1ulv6987 conn=wye bus1=p1ulv6987.1.2 kV=0.2080002494301389 Vminpu=0.8 Vmaxpu=1.2 model=1 kW=4.73005 kvar=0.960477617731872 Phases=2

New Load.load_p1ulv6988 conn=wye bus1=p1ulv6988.1.2 kV=0.2080002494301389 Vminpu=0.8 Vmaxpu=1.2 model=1 kW=11.670100000000001 kvar=2.3697148754648936 Phases=2

New Load.load_p1ulv6989 conn=wye bus1=p1ulv6989.1.2 kV=0.2080002494301389 Vminpu=0.8 Vmaxpu=1.2 model=1 kW=12.4801 kvar=1.011242282890373 Phases=2

New Load.load_p1ulv6990 conn=wye bus1=p1ulv6990.1.2 kV=0.2080002494301389 Vminpu=0.8 Vmaxpu=1.2 model=1 kW=10.65 kvar=0.6396408727569326 Phases=2

New Load.load_p1ulv6991 conn=wye bus1=p1ulv6991.1.2 kV=0.2080002494301389 Vminpu=0.8 Vmaxpu=1.2 model=1 kW=13.8801 kvar=1.288834604151149 Phases=2

New Load.load_p1ulv6993 conn=wye bus1=p1ulv6993.1.2 kV=0.2080002494301389 Vminpu=0.8 Vmaxpu=1.2 model=1 kW=3.57004 kvar=0.7193043493362031 Phases=2

New Load.load_p1ulv6994 conn=wye bus1=p1ulv6994.1.2 kV=0.2080002494301389 Vminpu=0.8 Vmaxpu=1.2 model=1 kW=11.44 kvar=0.8000592452444024 Phases=2

New Load.load_p1ulv6995 conn=wye bus1=p1ulv6995.1.2 kV=0.2080002494301389 Vminpu=0.8 Vmaxpu=1.2 model=1 kW=11.05 kvar=0.7208663675971405 Phases=2

New Load.load_p1ulv6996 conn=wye bus1=p1ulv6996.1.2 kV=0.2080002494301389 Vminpu=0.8 Vmaxpu=1.2 model=1 kW=11.04 kvar=0.7206859710917335 Phases=2

New Load.load_p1ulv7781 conn=wye bus1=p1ulv7781.1.2 kV=0.2080002494301389 Vminpu=0.8 Vmaxpu=1.2 model=1 kW=12.33 kvar=0.9807834837952725 Phases=2

New Load.load_p1ulv7822 conn=wye bus1=p1ulv7822.1.2 kV=0.2080002494301389 Vminpu=0.8 Vmaxpu=1.2 model=1 kW=10.67 kvar=0.6403771062023346 Phases=2

New Load.load_p1ulv7823 conn=wye bus1=p1ulv7823.1.2 kV=0.2080002494301389 Vminpu=0.8 Vmaxpu=1.2 model=1 kW=11.52 kvar=0.8205013197951115 Phases=2

New Load.load_p1ulv7824 conn=wye bus1=p1ulv7824.1.2 kV=0.2080002494301389 Vminpu=0.8 Vmaxpu=1.2 model=1 kW=18.62 kvar=0.7407437090079797 Phases=2

New Load.load_p1ulv7825 conn=wye bus1=p1ulv7825.1.2 kV=0.2080002494301389 Vminpu=0.8 Vmaxpu=1.2 model=1 kW=14.1201 kvar=1.3407947246159133 Phases=2

New Load.load_p1ulv7826 conn=wye bus1=p1ulv7826.1.2 kV=0.2080002494301389 Vminpu=0.8 Vmaxpu=1.2 model=1 kW=12.0201 kvar=0.9201976880580982 Phases=2

New Load.load_p1ulv7827 conn=wye bus1=p1ulv7827.1.2 kV=0.2080002494301389 Vminpu=0.8 Vmaxpu=1.2 model=1 kW=11.13 kvar=0.7409012375272501 Phases=2

New Load.load_p1ulv7828 conn=wye bus1=p1ulv7828.1.2 kV=0.2080002494301389 Vminpu=0.8 Vmaxpu=1.2 model=1 kW=3.0300300000000004 kvar=0.6105012150057635 Phases=2

New Load.load_p1ulv7829 conn=wye bus1=p1ulv7829.1.2 kV=0.2080002494301389 Vminpu=0.8 Vmaxpu=1.2 model=1 kW=13.0701 kvar=1.131048923251042 Phases=2

New Load.load_p1ulv7830 conn=wye bus1=p1ulv7830.1.2 kV=0.2080002494301389 Vminpu=0.8 Vmaxpu=1.2 model=1 kW=11.45 kvar=0.8000206635310265 Phases=2

New Load.load_p1ulv7831 conn=wye bus1=p1ulv7831.1.2 kV=0.2080002494301389 Vminpu=0.8 Vmaxpu=1.2 model=1 kW=10.54 kvar=0.6204785592224786 Phases=2

New Load.load_p1ulv7832 conn=wye bus1=p1ulv7832.1.2 kV=0.2080002494301389 Vminpu=0.8 Vmaxpu=1.2 model=1 kW=10.64 kvar=0.6392514123589496 Phases=2

New Load.load_p1ulv7833 conn=wye bus1=p1ulv7833.1.2 kV=0.2080002494301389 Vminpu=0.8 Vmaxpu=1.2 model=1 kW=11.16 kvar=0.7393639251946486 Phases=2

New Load.load_p1ulv7834 conn=wye bus1=p1ulv7834.1.2 kV=0.2080002494301389 Vminpu=0.8 Vmaxpu=1.2 model=1 kW=4.08004 kvar=0.8306198770333432 Phases=2

New Load.load_p1ulv7835 conn=wye bus1=p1ulv7835.1.2 kV=0.2080002494301389 Vminpu=0.8 Vmaxpu=1.2 model=1 kW=11.01 kvar=0.7109053401536299 Phases=2

New Load.load_p1ulv7836 conn=wye bus1=p1ulv7836.1.2 kV=0.2080002494301389 Vminpu=0.8 Vmaxpu=1.2 model=1 kW=10.71 kvar=0.6501428670480555 Phases=2

New Load.load_p1ulv7837 conn=wye bus1=p1ulv7837.1.2 kV=0.2080002494301389 Vminpu=0.8 Vmaxpu=1.2 model=1 kW=11.49 kvar=0.8102121782761024 Phases=2

New Load.load_p1ulv7838 conn=wye bus1=p1ulv7838.1.2 kV=0.2080002494301389 Vminpu=0.8 Vmaxpu=1.2 model=1 kW=10.57 kvar=0.620176126836135 Phases=2

New Load.load_p1ulv7839 conn=wye bus1=p1ulv7839.1.2 kV=0.2080002494301389 Vminpu=0.8 Vmaxpu=1.2 model=1 kW=10.7 kvar=0.6497938057886328 Phases=2

New Load.load_p1ulv7840 conn=wye bus1=p1ulv7840.1.2 kV=0.2080002494301389 Vminpu=0.8 Vmaxpu=1.2 model=1 kW=11.53 kvar=0.8204408116683792 Phases=2

New Load.load_p1ulv7841 conn=wye bus1=p1ulv7841.1.2 kV=0.2080002494301389 Vminpu=0.8 Vmaxpu=1.2 model=1 kW=11.59 kvar=0.8305180443395029 Phases=2

New Load.load_p1ulv7842 conn=wye bus1=p1ulv7842.1.2 kV=0.2080002494301389 Vminpu=0.8 Vmaxpu=1.2 model=1 kW=10.78 kvar=0.6694632252334703 Phases=2

New Load.load_p1ulv7843 conn=wye bus1=p1ulv7843.1.2 kV=0.2080002494301389 Vminpu=0.8 Vmaxpu=1.2 model=1 kW=11.11 kvar=0.7292634355115489 Phases=2

New Load.load_p1ulv7844 conn=wye bus1=p1ulv7844.1.2 kV=0.2080002494301389 Vminpu=0.8 Vmaxpu=1.2 model=1 kW=4.09004 kvar=0.8305180443395029 Phases=2

New Load.load_p1ulv7845 conn=wye bus1=p1ulv7845.1.2 kV=0.2080002494301389 Vminpu=0.8 Vmaxpu=1.2 model=1 kW=11.35 kvar=0.7797671809452545 Phases=2

New Load.load_p1ulv7846 conn=wye bus1=p1ulv7846.1.2 kV=0.2080002494301389 Vminpu=0.8 Vmaxpu=1.2 model=1 kW=10.52 kvar=0.6100756371530351 Phases=2

New Load.load_p1ulv7847 conn=wye bus1=p1ulv7847.1.2 kV=0.2080002494301389 Vminpu=0.8 Vmaxpu=1.2 model=1 kW=11.3 kvar=0.7696404396523686 Phases=2

New Load.load_p1ulv7848 conn=wye bus1=p1ulv7848.1.2 kV=0.2080002494301389 Vminpu=0.8 Vmaxpu=1.2 model=1 kW=11.5 kvar=0.8101474048239126 Phases=2

New Load.load_p1ulv7849 conn=wye bus1=p1ulv7849.1.2 kV=0.2080002494301389 Vminpu=0.8 Vmaxpu=1.2 model=1 kW=11.16 kvar=0.7393639251946486 Phases=2

New Load.load_p1ulv7850 conn=wye bus1=p1ulv7850.1.2 kV=0.2080002494301389 Vminpu=0.8 Vmaxpu=1.2 model=1 kW=12.5901 kvar=1.0309123903570856 Phases=2

New Load.load_p1ulv7851 conn=wye bus1=p1ulv7851.1.2 kV=0.2080002494301389 Vminpu=0.8 Vmaxpu=1.2 model=1 kW=11.12 kvar=0.7407437090079797 Phases=2

New Load.load_p1ulv7852 conn=wye bus1=p1ulv7852.1.2 kV=0.2080002494301389 Vminpu=0.8 Vmaxpu=1.2 model=1 kW=13.1601 kvar=1.149324202708102 Phases=2

New Load.load_p1ulv7853 conn=wye bus1=p1ulv7853.1.2 kV=0.2080002494301389 Vminpu=0.8 Vmaxpu=1.2 model=1 kW=10.86 kvar=0.6805230909267135 Phases=2

New Load.load_p1ulv7854 conn=wye bus1=p1ulv7854.1.2 kV=0.2080002494301389 Vminpu=0.8 Vmaxpu=1.2 model=1 kW=14.0801 kvar=1.3395792527207553 Phases=2

New Load.load_p1ulv7855 conn=wye bus1=p1ulv7855.1.2 kV=0.2080002494301389 Vminpu=0.8 Vmaxpu=1.2 model=1 kW=12.83 kvar=1.0795207485629381 Phases=2

New Load.load_p1ulv7856 conn=wye bus1=p1ulv7856.1.2 kV=0.2080002494301389 Vminpu=0.8 Vmaxpu=1.2 model=1 kW=3.33003 kvar=0.6796683639857601 Phases=2

New Load.load_p1ulv7857 conn=wye bus1=p1ulv7857.1.2 kV=0.2080002494301389 Vminpu=0.8 Vmaxpu=1.2 model=1 kW=11.26 kvar=0.7595649045608481 Phases=2

New Load.load_p1ulv7858 conn=wye bus1=p1ulv7858.1.2 kV=0.2080002494301389 Vminpu=0.8 Vmaxpu=1.2 model=1 kW=10.89 kvar=0.6901467391837689 Phases=2

New Load.load_p1ulv7859 conn=wye bus1=p1ulv7859.1.2 kV=0.2080002494301389 Vminpu=0.8 Vmaxpu=1.2 model=1 kW=19.25 kvar=0.8607811112883423 Phases=2

New Load.load_p1ulv7860 conn=wye bus1=p1ulv7860.1.2 kV=0.2080002494301389 Vminpu=0.8 Vmaxpu=1.2 model=1 kW=21.2001 kvar=1.2589758794504644 Phases=2

New Load.load_p1ulv7861 conn=wye bus1=p1ulv7861.1.2 kV=0.2080002494301389 Vminpu=0.8 Vmaxpu=1.2 model=1 kW=11.78 kvar=0.8690991898599637 Phases=2

New Load.load_p1ulv7862 conn=wye bus1=p1ulv7862.1.2 kV=0.2080002494301389 Vminpu=0.8 Vmaxpu=1.2 model=1 kW=11.92 kvar=0.8998375215150975 Phases=2

New Load.load_p1ulv7863 conn=wye bus1=p1ulv7863.1.2 kV=0.2080002494301389 Vminpu=0.8 Vmaxpu=1.2 model=1 kW=4.11004 kvar=0.8302683323425464 Phases=2

New Load.load_p1ulv7864 conn=wye bus1=p1ulv7864.1.2 kV=0.2080002494301389 Vminpu=0.8 Vmaxpu=1.2 model=1 kW=12.1501 kvar=0.9393556410179604 Phases=2

New Load.load_p1ulv7865 conn=wye bus1=p1ulv7865.1.2 kV=0.2080002494301389 Vminpu=0.8 Vmaxpu=1.2 model=1 kW=11.18 kvar=0.7491873541136322 Phases=2

New Load.load_p1ulv7866 conn=wye bus1=p1ulv7866.1.2 kV=0.2080002494301389 Vminpu=0.8 Vmaxpu=1.2 model=1 kW=13.8201 kvar=1.2800322515103388 Phases=2

New Load.load_p1ulv7867 conn=wye bus1=p1ulv7867.1.2 kV=0.2080002494301389 Vminpu=0.8 Vmaxpu=1.2 model=1 kW=12.5401 kvar=1.0207856490641993 Phases=2

New Load.load_p1ulv7868 conn=wye bus1=p1ulv7868.1.2 kV=0.2080002494301389 Vminpu=0.8 Vmaxpu=1.2 model=1 kW=12.3201 kvar=0.9787528971889325 Phases=2

New Load.load_p1ulv7869 conn=wye bus1=p1ulv7869.1.2 kV=0.2080002494301389 Vminpu=0.8 Vmaxpu=1.2 model=1 kW=3.9600400000000002 kvar=0.7999668632932473 Phases=2

New Load.load_p1ulv7870 conn=wye bus1=p1ulv7870.1.2 kV=0.2080002494301389 Vminpu=0.8 Vmaxpu=1.2 model=1 kW=11.39 kvar=0.789906312212702 Phases=2

New Load.load_p1ulv7871 conn=wye bus1=p1ulv7871.1.2 kV=0.2080002494301389 Vminpu=0.8 Vmaxpu=1.2 model=1 kW=13.7801 kvar=1.2785028247178991 Phases=2

New Load.load_p1ulv7872 conn=wye bus1=p1ulv7872.1.2.3 kV=0.48 Vminpu=0.8 Vmaxpu=1.2 model=1 kW=146.341 kvar=29.715807455840825 Phases=3

New Load.load_p1ulv7873 conn=wye bus1=p1ulv7873.1.2 kV=0.2080002494301389 Vminpu=0.8 Vmaxpu=1.2 model=1 kW=10.57 kvar=0.620176126836135 Phases=2

New Load.load_p1ulv7874 conn=wye bus1=p1ulv7874.1.2 kV=0.2080002494301389 Vminpu=0.8 Vmaxpu=1.2 model=1 kW=11.67 kvar=0.8489421946902781 Phases=2

New Load.load_p1ulv7875 conn=wye bus1=p1ulv7875.1.2 kV=0.2080002494301389 Vminpu=0.8 Vmaxpu=1.2 model=1 kW=4.03004 kvar=0.8204408116683792 Phases=2

New Load.load_p1ulv7876 conn=wye bus1=p1ulv7876.1.2.3 kV=0.48 Vminpu=0.8 Vmaxpu=1.2 model=1 kW=23.430200000000003 kvar=4.757705030386847 Phases=3

New Load.load_p1ulv7877 conn=wye bus1=p1ulv7877.1.2 kV=0.2080002494301389 Vminpu=0.8 Vmaxpu=1.2 model=1 kW=10.6 kvar=0.6294879397252322 Phases=2

New Load.load_p1ulv7878 conn=wye bus1=p1ulv7878.1.2 kV=0.2080002494301389 Vminpu=0.8 Vmaxpu=1.2 model=1 kW=10.68 kvar=0.6507075106785133 Phases=2

New Load.load_p1ulv7879 conn=wye bus1=p1ulv7879.1.2 kV=0.2080002494301389 Vminpu=0.8 Vmaxpu=1.2 model=1 kW=12.8201 kvar=1.0802822275059345 Phases=2

New Load.load_p1ulv7880 conn=wye bus1=p1ulv7880.1.2 kV=0.2080002494301389 Vminpu=0.8 Vmaxpu=1.2 model=1 kW=11.98 kvar=0.9097109219867646 Phases=2

New Load.load_p1ulv7881 conn=wye bus1=p1ulv7881.1.2 kV=0.2080002494301389 Vminpu=0.8 Vmaxpu=1.2 model=1 kW=5.86006 kvar=1.1899359348349032 Phases=2

New Load.load_p1ulv7882 conn=wye bus1=p1ulv7882.1.2 kV=0.2080002494301389 Vminpu=0.8 Vmaxpu=1.2 model=1 kW=10.65 kvar=0.6396408727569326 Phases=2

New Load.load_p1ulv7883 conn=wye bus1=p1ulv7883.1.2 kV=0.2080002494301389 Vminpu=0.8 Vmaxpu=1.2 model=1 kW=12.89 kvar=1.088842888327837 Phases=2

New Load.load_p1ulv7884 conn=wye bus1=p1ulv7884.1.2 kV=0.2080002494301389 Vminpu=0.8 Vmaxpu=1.2 model=1 kW=4.41004 kvar=0.900101402062973 Phases=2

New Load.load_p1ulv7885 conn=wye bus1=p1ulv7885.1.2 kV=0.2080002494301389 Vminpu=0.8 Vmaxpu=1.2 model=1 kW=10.93 kvar=0.70007864149034 Phases=2

New Load.load_p1ulv7886 conn=wye bus1=p1ulv7886.1.2 kV=0.2080002494301389 Vminpu=0.8 Vmaxpu=1.2 model=1 kW=2.98003 kvar=0.6004270372747549 Phases=2

New Load.load_p1ulv7887 conn=wye bus1=p1ulv7887.1.2 kV=0.2080002494301389 Vminpu=0.8 Vmaxpu=1.2 model=1 kW=10.94 kvar=0.7003258045487328 Phases=2

New Load.load_p1ulv7888 conn=wye bus1=p1ulv7888.1.2 kV=0.2080002494301389 Vminpu=0.8 Vmaxpu=1.2 model=1 kW=12.2001 kvar=0.9494561307010603 Phases=2

New Load.load_p1ulv7889 conn=wye bus1=p1ulv7889.1.2 kV=0.2080002494301389 Vminpu=0.8 Vmaxpu=1.2 model=1 kW=12.5201 kvar=1.0193646293157332 Phases=2

New Load.load_p1ulv7890 conn=wye bus1=p1ulv7890.1.2 kV=0.2080002494301389 Vminpu=0.8 Vmaxpu=1.2 model=1 kW=11 kvar=0.7107134345654403 Phases=2

New Load.load_p1ulv7891 conn=wye bus1=p1ulv7891.1.2 kV=0.2080002494301389 Vminpu=0.8 Vmaxpu=1.2 model=1 kW=12.2301 kvar=0.960477617731872 Phases=2

New Load.load_p1ulv7892 conn=wye bus1=p1ulv7892.1.2 kV=0.2080002494301389 Vminpu=0.8 Vmaxpu=1.2 model=1 kW=4.64005 kvar=0.9397717187211114 Phases=2

New Load.load_p1ulv7893 conn=wye bus1=p1ulv7893.1.2 kV=0.2080002494301389 Vminpu=0.8 Vmaxpu=1.2 model=1 kW=21.3001 kvar=1.2792817455138652 Phases=2

New Load.load_p1ulv7894 conn=wye bus1=p1ulv7894.1.2 kV=0.2080002494301389 Vminpu=0.8 Vmaxpu=1.2 model=1 kW=10.48 kvar=0.6004270372747549 Phases=2

New Load.load_p1ulv7895 conn=wye bus1=p1ulv7895.1.2 kV=0.2080002494301389 Vminpu=0.8 Vmaxpu=1.2 model=1 kW=11.37 kvar=0.7898859035382418 Phases=2

New Load.load_p1ulv7896 conn=wye bus1=p1ulv7896.1.2 kV=0.2080002494301389 Vminpu=0.8 Vmaxpu=1.2 model=1 kW=6.09006 kvar=1.2398223763310365 Phases=2

New Load.load_p1ulv7897 conn=wye bus1=p1ulv7897.1.2 kV=0.2080002494301389 Vminpu=0.8 Vmaxpu=1.2 model=1 kW=11.02 kvar=0.7092301716051945 Phases=2

New Load.load_p1ulv7898 conn=wye bus1=p1ulv7898.1.2 kV=0.2080002494301389 Vminpu=0.8 Vmaxpu=1.2 model=1 kW=11.16 kvar=0.7393639251946486 Phases=2

New Load.load_p1ulv7899 conn=wye bus1=p1ulv7899.1.2 kV=0.2080002494301389 Vminpu=0.8 Vmaxpu=1.2 model=1 kW=4.77005 kvar=0.9710930148829175 Phases=2

New Load.load_p1ulv7900 conn=wye bus1=p1ulv7900.1.2 kV=0.2080002494301389 Vminpu=0.8 Vmaxpu=1.2 model=1 kW=11.57 kvar=0.8307064585474014 Phases=2

New Load.load_p1ulv7901 conn=wye bus1=p1ulv7901.1.2 kV=0.2080002494301389 Vminpu=0.8 Vmaxpu=1.2 model=1 kW=10.74 kvar=0.6596095430888772 Phases=2

New Load.load_p1ulv7902 conn=wye bus1=p1ulv7902.1.2 kV=0.2080002494301389 Vminpu=0.8 Vmaxpu=1.2 model=1 kW=11.98 kvar=0.9097109219867646 Phases=2

New Load.load_p1ulv7903 conn=wye bus1=p1ulv7903.1.2 kV=0.2080002494301389 Vminpu=0.8 Vmaxpu=1.2 model=1 kW=11.39 kvar=0.789906312212702 Phases=2

New Load.load_p1ulv9328 conn=wye bus1=p1ulv9328.1.2 kV=0.2080002494301389 Vminpu=0.8 Vmaxpu=1.2 model=1 kW=14.8901 kvar=1.5006177161915362 Phases=2

New Load.load_p1ulv10379 conn=wye bus1=p1ulv10379.1.2 kV=0.2080002494301389 Vminpu=0.8 Vmaxpu=1.2 model=1 kW=4.70005 kvar=0.9494561307010603 Phases=2

New Load.load_p1ulv10380 conn=wye bus1=p1ulv10380.1.2 kV=0.2080002494301389 Vminpu=0.8 Vmaxpu=1.2 model=1 kW=3.86004 kvar=0.7797658839270477 Phases=2

New Load.load_p1ulv10381 conn=wye bus1=p1ulv10381.1.2 kV=0.2080002494301389 Vminpu=0.8 Vmaxpu=1.2 model=1 kW=4.21004 kvar=0.850469311708746 Phases=2

New Load.load_p1ulv10382 conn=wye bus1=p1ulv10382.1.2 kV=0.2080002494301389 Vminpu=0.8 Vmaxpu=1.2 model=1 kW=2.89003 kvar=0.5898631429656088 Phases=2

New Load.load_p1ulv10384 conn=wye bus1=p1ulv10384.1.2 kV=0.2080002494301389 Vminpu=0.8 Vmaxpu=1.2 model=1 kW=4.10004 kvar=0.8304008874096844 Phases=2

New Load.load_p1ulv10386 conn=wye bus1=p1ulv10386.1.2 kV=0.2080002494301389 Vminpu=0.8 Vmaxpu=1.2 model=1 kW=3.91004 kvar=0.7898663736101474 Phases=2

New Load.load_p1ulv10387 conn=wye bus1=p1ulv10387.1.2 kV=0.2080002494301389 Vminpu=0.8 Vmaxpu=1.2 model=1 kW=3.54004 kvar=0.7206859710917335 Phases=2

New Load.load_p1ulv10390 conn=wye bus1=p1ulv10390.1.2 kV=0.2080002494301389 Vminpu=0.8 Vmaxpu=1.2 model=1 kW=3.66004 kvar=0.7393639251946486 Phases=2

New Load.load_p1ulv10391 conn=wye bus1=p1ulv10391.1.2 kV=0.2080002494301389 Vminpu=0.8 Vmaxpu=1.2 model=1 kW=3.7300400000000002 kvar=0.7593664194785962 Phases=2

New Load.load_p1ulv10392 conn=wye bus1=p1ulv10392.1.2 kV=0.2080002494301389 Vminpu=0.8 Vmaxpu=1.2 model=1 kW=3.80004 kvar=0.7696404396523686 Phases=2

New Load.load_p1ulv10393 conn=wye bus1=p1ulv10393.1.2 kV=0.2080002494301389 Vminpu=0.8 Vmaxpu=1.2 model=1 kW=3.67004 kvar=0.749065348529082 Phases=2

New Load.load_p1ulv10395 conn=wye bus1=p1ulv10395.1.2 kV=0.2080002494301389 Vminpu=0.8 Vmaxpu=1.2 model=1 kW=2.8200300000000005 kvar=0.5696736784206362 Phases=2

New Load.load_p1ulv10397 conn=wye bus1=p1ulv10397.1.2 kV=0.2080002494301389 Vminpu=0.8 Vmaxpu=1.2 model=1 kW=4.590050000000001 kvar=0.9296449774282256 Phases=2

New Load.load_p1ulv10398 conn=wye bus1=p1ulv10398.1.2 kV=0.2080002494301389 Vminpu=0.8 Vmaxpu=1.2 model=1 kW=5.06005 kvar=1.030131593999708 Phases=2

New Load.load_p1ulv10399 conn=wye bus1=p1ulv10399.1.2 kV=0.2080002494301389 Vminpu=0.8 Vmaxpu=1.2 model=1 kW=3.89004 kvar=0.789906312212702 Phases=2

New Load.load_p1ulv10400 conn=wye bus1=p1ulv10400.1.2 kV=0.2080002494301389 Vminpu=0.8 Vmaxpu=1.2 model=1 kW=4.10004 kvar=0.8304008874096844 Phases=2

New Load.load_p1ulv10402 conn=wye bus1=p1ulv10402.1.2 kV=0.2080002494301389 Vminpu=0.8 Vmaxpu=1.2 model=1 kW=4.54005 kvar=0.9195182361353397 Phases=2

New Load.load_p1ulv10406 conn=wye bus1=p1ulv10406.1.2 kV=0.2080002494301389 Vminpu=0.8 Vmaxpu=1.2 model=1 kW=3.0300300000000004 kvar=0.6200140497357622 Phases=2

New Load.load_p1ulv11126 conn=wye bus1=p1ulv11126.1.2 kV=0.2080002494301389 Vminpu=0.8 Vmaxpu=1.2 model=1 kW=3.87004 kvar=0.7898859035382418 Phases=2

New Load.load_p1ulv11127 conn=wye bus1=p1ulv11127.1.2 kV=0.2080002494301389 Vminpu=0.8 Vmaxpu=1.2 model=1 kW=4.21004 kvar=0.8592808470538134 Phases=2

New Load.load_p1ulv11128 conn=wye bus1=p1ulv11128.1.2 kV=0.2080002494301389 Vminpu=0.8 Vmaxpu=1.2 model=1 kW=4.66005 kvar=0.951129136852173 Phases=2

New Load.load_p1ulv11129 conn=wye bus1=p1ulv11129.1.2 kV=0.2080002494301389 Vminpu=0.8 Vmaxpu=1.2 model=1 kW=3.60004 kvar=0.7291334744808246 Phases=2

New Load.load_p1ulv11131 conn=wye bus1=p1ulv11131.1.2 kV=0.2080002494301389 Vminpu=0.8 Vmaxpu=1.2 model=1 kW=4.44004 kvar=0.8992627282013091 Phases=2

New Load.load_p1ulv11132 conn=wye bus1=p1ulv11132.1.2 kV=0.2080002494301389 Vminpu=0.8 Vmaxpu=1.2 model=1 kW=3.9400400000000007 kvar=0.8000592452444024 Phases=2

New Load.load_p1ulv11133 conn=wye bus1=p1ulv11133.1.2 kV=0.2080002494301389 Vminpu=0.8 Vmaxpu=1.2 model=1 kW=5.65006 kvar=1.1502466011193542 Phases=2

New Load.load_p1ulv11134 conn=wye bus1=p1ulv11134.1.2 kV=0.2080002494301389 Vminpu=0.8 Vmaxpu=1.2 model=1 kW=3.63004 kvar=0.7409012375272501 Phases=2

New Load.load_p1ulv11137 conn=wye bus1=p1ulv11137.1.2 kV=0.2080002494301389 Vminpu=0.8 Vmaxpu=1.2 model=1 kW=3.52004 kvar=0.7092301716051945 Phases=2

New Load.load_p1ulv11138 conn=wye bus1=p1ulv11138.1.2 kV=0.2080002494301389 Vminpu=0.8 Vmaxpu=1.2 model=1 kW=4.58005 kvar=0.9300188186367714 Phases=2

New Load.load_p1ulv11139 conn=wye bus1=p1ulv11139.1.2 kV=0.2080002494301389 Vminpu=0.8 Vmaxpu=1.2 model=1 kW=4.42004 kvar=0.8998375215150975 Phases=2

New Load.load_p1ulv11141 conn=wye bus1=p1ulv11141.1.2 kV=0.2080002494301389 Vminpu=0.8 Vmaxpu=1.2 model=1 kW=3.80004 kvar=0.7696404396523686 Phases=2

New Load.load_p1ulv11153 conn=wye bus1=p1ulv11153.1.2 kV=0.2080002494301389 Vminpu=0.8 Vmaxpu=1.2 model=1 kW=5.21005 kvar=1.0606687900945995 Phases=2

New Load.load_p1ulv11158 conn=wye bus1=p1ulv11158.1.2 kV=0.2080002494301389 Vminpu=0.8 Vmaxpu=1.2 model=1 kW=4.66005 kvar=0.951129136852173 Phases=2

New Load.load_p1ulv11159 conn=wye bus1=p1ulv11159.1.2 kV=0.2080002494301389 Vminpu=0.8 Vmaxpu=1.2 model=1 kW=3.2600300000000004 kvar=0.6602696083409414 Phases=2

New Load.load_p1ulv11160 conn=wye bus1=p1ulv11160.1.2 kV=0.2080002494301389 Vminpu=0.8 Vmaxpu=1.2 model=1 kW=3.59004 kvar=0.7308650364566972 Phases=2

New Load.load_p1ulv11161 conn=wye bus1=p1ulv11161.1.2 kV=0.2080002494301389 Vminpu=0.8 Vmaxpu=1.2 model=1 kW=4.32004 kvar=0.8794793907851697 Phases=2

New Load.load_p1ulv11162 conn=wye bus1=p1ulv11162.1.2 kV=0.2080002494301389 Vminpu=0.8 Vmaxpu=1.2 model=1 kW=1.55002 kvar=0.3098451234668906 Phases=2

New Load.load_p1ulv11163 conn=wye bus1=p1ulv11163.1.2 kV=0.2080002494301389 Vminpu=0.8 Vmaxpu=1.2 model=1 kW=3.92004 kvar=0.8000910422905317 Phases=2

New Load.load_p1ulv11164 conn=wye bus1=p1ulv11164.1.2 kV=0.2080002494301389 Vminpu=0.8 Vmaxpu=1.2 model=1 kW=6.18006 kvar=1.2613673959495373 Phases=2

New Load.load_p1ulv11558 conn=wye bus1=p1ulv11558.1.2 kV=0.2080002494301389 Vminpu=0.8 Vmaxpu=1.2 model=1 kW=3.67004 kvar=0.7394527047982206 Phases=2

New Load.load_p1ulv11559 conn=wye bus1=p1ulv11559.1.2 kV=0.2080002494301389 Vminpu=0.8 Vmaxpu=1.2 model=1 kW=2.99003 kvar=0.6102734204701886 Phases=2

New Load.load_p1ulv11560 conn=wye bus1=p1ulv11560.1.2 kV=0.2080002494301389 Vminpu=0.8 Vmaxpu=1.2 model=1 kW=3.16003 kvar=0.6400161257551694 Phases=2

New Load.load_p1ulv11561 conn=wye bus1=p1ulv11561.1.2 kV=0.2080002494301389 Vminpu=0.8 Vmaxpu=1.2 model=1 kW=3.68004 kvar=0.7491873541136322 Phases=2

New Load.load_p1ulv11562 conn=wye bus1=p1ulv11562.1.2 kV=0.2080002494301389 Vminpu=0.8 Vmaxpu=1.2 model=1 kW=3.29003 kvar=0.6697886084538411 Phases=2

New Load.load_p1ulv11563 conn=wye bus1=p1ulv11563.1.2 kV=0.2080002494301389 Vminpu=0.8 Vmaxpu=1.2 model=1 kW=4.18004 kvar=0.8509780077632708 Phases=2

New Load.load_p1ulv11564 conn=wye bus1=p1ulv11564.1.2 kV=0.2080002494301389 Vminpu=0.8 Vmaxpu=1.2 model=1 kW=3.24003 kvar=0.6596095430888772 Phases=2

New Load.load_p1ulv11565 conn=wye bus1=p1ulv11565.1.2 kV=0.2080002494301389 Vminpu=0.8 Vmaxpu=1.2 model=1 kW=3.7100400000000002 kvar=0.7494644148777485 Phases=2

New Load.load_p1ulv11566 conn=wye bus1=p1ulv11566.1.2 kV=0.2080002494301389 Vminpu=0.8 Vmaxpu=1.2 model=1 kW=1.85002 kvar=0.38047547394451825 Phases=2

New Load.load_p1ulv12255 conn=wye bus1=p1ulv12255.1.2 kV=0.2080002494301389 Vminpu=0.8 Vmaxpu=1.2 model=1 kW=6.29006 kvar=1.280538637790892 Phases=2

New Load.load_p1ulv12256 conn=wye bus1=p1ulv12256.1.2 kV=0.2080002494301389 Vminpu=0.8 Vmaxpu=1.2 model=1 kW=3.57004 kvar=0.7305125553603958 Phases=2

New Load.load_p1ulv12257 conn=wye bus1=p1ulv12257.1.2 kV=0.2080002494301389 Vminpu=0.8 Vmaxpu=1.2 model=1 kW=4.79005 kvar=0.9701519425997696 Phases=2

New Load.load_p1ulv12258 conn=wye bus1=p1ulv12258.1.2 kV=0.2080002494301389 Vminpu=0.8 Vmaxpu=1.2 model=1 kW=3.10003 kvar=0.6294879397252322 Phases=2

New Load.load_p1ulv12259 conn=wye bus1=p1ulv12259.1.2 kV=0.2080002494301389 Vminpu=0.8 Vmaxpu=1.2 model=1 kW=3.31003 kvar=0.6703963496338274 Phases=2

New Load.load_p1ulv12260 conn=wye bus1=p1ulv12260.1.2 kV=0.2080002494301389 Vminpu=0.8 Vmaxpu=1.2 model=1 kW=14.750100000000002 kvar=2.987408934883949 Phases=2

New Load.load_p1ulv12261 conn=wye bus1=p1ulv12261.1.2 kV=0.2080002494301389 Vminpu=0.8 Vmaxpu=1.2 model=1 kW=3.25003 kvar=0.659946738820333 Phases=2

New Load.load_p1ulv12262 conn=wye bus1=p1ulv12262.1.2 kV=0.2080002494301389 Vminpu=0.8 Vmaxpu=1.2 model=1 kW=4.91005 kvar=0.9995943979048163 Phases=2

New Load.load_p1ulv12263 conn=wye bus1=p1ulv12263.1.2 kV=0.2080002494301389 Vminpu=0.8 Vmaxpu=1.2 model=1 kW=3.61004 kvar=0.7292634355115489 Phases=2

New Load.load_p1ulv12264 conn=wye bus1=p1ulv12264.1.2 kV=0.2080002494301389 Vminpu=0.8 Vmaxpu=1.2 model=1 kW=8.65009 kvar=1.7609966304564053 Phases=2

New Load.load_p1ulv12265 conn=wye bus1=p1ulv12265.1.2 kV=0.2080002494301389 Vminpu=0.8 Vmaxpu=1.2 model=1 kW=5.44005 kvar=1.0989433780109366 Phases=2

New Load.load_p1ulv12266 conn=wye bus1=p1ulv12266.1.2 kV=0.2080002494301389 Vminpu=0.8 Vmaxpu=1.2 model=1 kW=3.10003 kvar=0.6294879397252322 Phases=2

New Load.load_p1ulv12267 conn=wye bus1=p1ulv12267.1.2 kV=0.2080002494301389 Vminpu=0.8 Vmaxpu=1.2 model=1 kW=4.37004 kvar=0.8896584561501336 Phases=2

New Load.load_p1ulv12268 conn=wye bus1=p1ulv12268.1.2 kV=0.2080002494301389 Vminpu=0.8 Vmaxpu=1.2 model=1 kW=4.05004 kvar=0.8202741461167985 Phases=2

New Load.load_p1ulv12269 conn=wye bus1=p1ulv12269.1.2 kV=0.2080002494301389 Vminpu=0.8 Vmaxpu=1.2 model=1 kW=2.59003 kvar=0.5299798976370255 Phases=2

New Load.load_p1ulv12270 conn=wye bus1=p1ulv12270.1.2 kV=0.2080002494301389 Vminpu=0.8 Vmaxpu=1.2 model=1 kW=6.07006 kvar=1.2293985450459088 Phases=2

New Load.load_p1ulv12271 conn=wye bus1=p1ulv12271.1.2 kV=0.2080002494301389 Vminpu=0.8 Vmaxpu=1.2 model=1 kW=3.72004 kvar=0.7592704872813721 Phases=2

New Load.load_p1ulv12272 conn=wye bus1=p1ulv12272.1.2 kV=0.2080002494301389 Vminpu=0.8 Vmaxpu=1.2 model=1 kW=5.70006 kvar=1.1604256664843182 Phases=2

New Load.load_p1ulv12273 conn=wye bus1=p1ulv12273.1.2 kV=0.2080002494301389 Vminpu=0.8 Vmaxpu=1.2 model=1 kW=7.78008 kvar=1.579812624425404 Phases=2

New Load.load_p1ulv12274 conn=wye bus1=p1ulv12274.1.2.3 kV=0.48 Vminpu=0.8 Vmaxpu=1.2 model=1 kW=83.97080000000001 kvar=17.05099818036585 Phases=3

New Load.load_p1ulv12275 conn=wye bus1=p1ulv12275.1.2 kV=0.2080002494301389 Vminpu=0.8 Vmaxpu=1.2 model=1 kW=3.31003 kvar=0.6703963496338274 Phases=2

New Load.load_p1ulv12276 conn=wye bus1=p1ulv12276.1.2 kV=0.2080002494301389 Vminpu=0.8 Vmaxpu=1.2 model=1 kW=3.35003 kvar=0.6802526048837334 Phases=2

New Load.load_p1ulv12277 conn=wye bus1=p1ulv12277.1.2 kV=0.2080002494301389 Vminpu=0.8 Vmaxpu=1.2 model=1 kW=4.05004 kvar=0.8202741461167985 Phases=2

New Load.load_p1ulv12278 conn=wye bus1=p1ulv12278.1.2 kV=0.2080002494301389 Vminpu=0.8 Vmaxpu=1.2 model=1 kW=3.83004 kvar=0.7797245502085238 Phases=2

New Load.load_p1ulv12279 conn=wye bus1=p1ulv12279.1.2 kV=0.2080002494301389 Vminpu=0.8 Vmaxpu=1.2 model=1 kW=7.13007 kvar=1.4515489717353578 Phases=2

New Load.load_p1ulv12280 conn=wye bus1=p1ulv12280.1.2 kV=0.2080002494301389 Vminpu=0.8 Vmaxpu=1.2 model=1 kW=4.00004 kvar=0.8101474048239126 Phases=2

...